OPF_Python/data/network/mat/caseERCOT.m
function mpc = caseERCOT


%% MATPOWER Case Format : Version 2
mpc.version = '2';

%%-----  Power Flow Data  -----%%
%% system MVA base
mpc.baseMVA = 100;

%% bus data
%	bus_i	type	Pd	Qd	Gs	Bs	area	Vm	Va	baseKV	zone	Vmax	Vmin
mpc.bus = [
	1	3	1274	0	0	0	1	0.9703	0	345	1	1.05	0.95;
	2	1	10693	0	0	0	1	0.9703	0	345	1	1.05	0.95;
	3	1	753	0	0	0	1	0.9703	0	345	1	1.05	0.95;
	4	1	11662	0	0	0	1	0.9703	0	345	1	1.05	0.95;
	5	1	6008	0	0	0	1	0.9703	0	345	1	1.05	0.95;
	6	1	1166	0	0	0	1	0.9703	0	345	1	1.05	0.95;
	7	1	3016	0	0	0	1	0.9703	0	345	1	1.05	0.95;
	8	1	3678	0	0	0	1	0.9703	0	345	1	1.05	0.95
];

%% generator data
%	bus	Pg	Qg	Qmax	Qmin	Vg	mBase	status	Pmax	Pmin	Pc1	Pc2	Qc1min	Qc1max	Qc2min	Qc2max	ramp_agc	ramp_10	ramp_30	ramp_q	apf
mpc.gen = [
	1	0	0	19978.8	-19978.8	1	100	1	19978.8	0	0	0	0	0	0	0	0	0	0	0	0;
	1	0	0	11664.8	-11664.8	1	100	1	11664.8	0	0	0	0	0	0	0	0	0	0	0	0;
	1	0	0	2430	-2430	1	100	1	2430	0	0	0	0	0	0	0	0	0	0	0	0;
	2	0	0	20761.7	-20761.7	1	100	1	20761.7	0	0	0	0	0	0	0	0	0	0	0	0;
	2	0	0	3190.3	-3190.3	1	100	1	3190.3	0	0	0	0	0	0	0	0	0	0	0	0;
	2	0	0	2708.6	-2708.6	1	100	1	2708.6	0	0	0	0	0	0	0	0	0	0	0	0;
	3	0	0	80	-80	1	100	1	80	0	0	0	0	0	0	0	0	0	0	0	0;
	3	0	0	720	-720	1	100	1	720	0	0	0	0	0	0	0	0	0	0	0	0;
	4	0	0	3438.2	-3438.2	1	100	1	3438.2	0	0	0	0	0	0	0	0	0	0	0	0;
	5	0	0	10589.7	-10589.7	1	100	1	10589.7	0	0	0	0	0	0	0	0	0	0	0	0;
	5	0	0	5728.1	-5728.1	1	100	1	5728.1	0	0	0	0	0	0	0	0	0	0	0	0;
	7	0	0	7385	-7385	1	100	1	7385	0	0	0	0	0	0	0	0	0	0	0	0;
	7	0	0	622.4	-622.4	1	100	1	622.4	0	0	0	0	0	0	0	0	0	0	0	0
];

%% branch data
%	fbus	tbus	r	x	b	rateA	rateB	rateC	ratio	angle	status	angmin	angmax
mpc.branch = [
	1	2	0	0.045904297	0	21680	21680	21680	0	0	1	-360	360;
	1	3	0	0.031425783	0	32520	32520	32520	0	0	1	-360	360;
	1	4	0	0.058727716	0	21680	21680	21680	0	0	1	-360	360;
	1	5	0	0.043607431	0	21680	21680	21680	0	0	1	-360	360;
	2	5	0	0.010977669	0	65040	65040	65040	0	0	1	-360	360;
	2	7	0	0.04632614	0	21680	21680	21680	0	0	1	-360	360;
	3	4	0	0.032739351	0	21680	21680	21680	0	0	1	-360	360;
	4	5	0	0.018492025	0	65040	65040	65040	0	0	1	-360	360;
	4	6	0	0.04456671	0	21680	21680	21680	0	0	1	-360	360;
	4	8	0	0.047622443	0	21680	21680	21680	0	0	1	-360	360;
	5	6	0	0.031584913	0	21680	21680	21680	0	0	1	-360	360;
	5	7	0	0.037028336	0	21680	21680	21680	0	0	1	-360	360;
	6	7	0	0.044323513	0	21680	21680	21680	0	0	1	-360	360
];

%%-----  OPF Data  -----%%
%% area data
%	area	refbus
mpc.areas = [
	1	1;
];

%% generator cost data
%	1	startup	shutdown	n	x1	y1	...	xn	yn
%	2	startup	shutdown	n	c(n-1)	...	c0
mpc.gencost = [
	2	0	0	3	0.003	35	2230;
	2	0	0	3	0.0009	19	2128;
	2	0	0	3	0.00019	8	1250;
	2	0	0	3	0.0075	56.5	2230;
	2	0	0	3	0.0009	19	2128;
	2	0	0	3	0.00019	8	1250;
	2	0	0	3	0.008	57.03	0;
	2	0	0	3	0.0009	19	2128;
	2	0	0	3	0.008	57.03	0;
	2	0	0	3	0.006	45	2230;
	2	0	0	3	0.0009	19	2128;
	2	0	0	3	0.007	50	2230;
	2	0	0	3	0.0009	19	2128
];
